<?xml version="1.0" encoding="UTF-8"?>

<!-- generated on 03/02/16 11:52:51 by SUMO netconvert Version 0.25.0
<?xml version="1.0" encoding="UTF-8"?>

<configuration xmlns:xsi="http://www.w3.org/2001/XMLSchema-instance" xsi:noNamespaceSchemaLocation="http://sumo.dlr.de/xsd/netconvertConfiguration.xsd">

    <input>
        <node-files value="C:\Users\Tetcos\Desktop\VANET\NODES.nod.xml"/>
        <edge-files value="C:\Users\Tetcos\Desktop\VANET\EDGE.edg.xml"/>
    </input>

    <output>
        <output-file value="C:\Users\Tetcos\Desktop\VANET\NETWORK.net.xml"/>
    </output>

</configuration>
-->

<net version="0.25" xmlns:xsi="http://www.w3.org/2001/XMLSchema-instance" xsi:noNamespaceSchemaLocation="http://sumo.dlr.de/xsd/net_file.xsd">

    <location netOffset="-100.00,-100.00" convBoundary="0.00,0.00,600.00,200.00" origBoundary="100.00,100.00,700.00,300.00" projParameter="!"/>

    <edge id=":n0_0" function="internal">
        <lane id=":n0_0_0" index="0" speed="40.00" length="14.65" shape="7.85,201.65 3.19,201.13 1.07,199.56 1.46,196.94 4.38,193.29"/>
    </edge>
    <edge id=":n0_1" function="internal">
        <lane id=":n0_1_0" index="0" speed="40.00" length="2.65" shape="7.85,201.65 6.61,200.83 6.20,200.00 6.30,199.79"/>
    </edge>
    <edge id=":n0_4" function="internal">
        <lane id=":n0_4_0" index="0" speed="40.00" length="2.17" shape="6.30,199.79 6.61,199.18 7.85,198.35"/>
    </edge>
    <edge id=":n0_2" function="internal">
        <lane id=":n0_2_0" index="0" speed="40.00" length="4.78" shape="6.71,195.62 5.76,196.81 5.63,197.67 6.33,198.18 7.85,198.35"/>
    </edge>
    <edge id=":n0_3" function="internal">
        <lane id=":n0_3_0" index="0" speed="40.00" length="2.26" shape="6.71,195.62 5.26,195.91 4.53,195.67"/>
    </edge>
    <edge id=":n0_5" function="internal">
        <lane id=":n0_5_0" index="0" speed="40.00" length="2.56" shape="4.53,195.67 4.38,195.62 4.09,194.74 4.38,193.29"/>
    </edge>
    <edge id=":n1_0" function="internal">
        <lane id=":n1_0_0" index="0" speed="40.00" length="9.50" shape="204.75,201.65 195.25,201.65"/>
    </edge>
    <edge id=":n1_1" function="internal">
        <lane id=":n1_1_0" index="0" speed="40.00" length="5.28" shape="204.75,201.65 201.95,201.25 199.95,200.05 199.89,199.95"/>
    </edge>
    <edge id=":n1_2" function="internal">
        <lane id=":n1_2_0" index="0" speed="40.00" length="2.41" shape="204.75,201.65 203.51,200.83 203.10,200.00"/>
    </edge>
    <edge id=":n1_9" function="internal">
        <lane id=":n1_9_0" index="0" speed="40.00" length="5.04" shape="199.89,199.95 198.75,198.05 198.35,195.25"/>
    </edge>
    <edge id=":n1_10" function="internal">
        <lane id=":n1_10_0" index="0" speed="40.00" length="2.41" shape="203.10,200.00 203.51,199.18 204.75,198.35"/>
    </edge>
    <edge id=":n1_3" function="internal">
        <lane id=":n1_3_0" index="0" speed="40.00" length="5.00" shape="201.65,195.25 201.84,196.61 202.43,197.58 203.39,198.16 204.75,198.35"/>
    </edge>
    <edge id=":n1_4" function="internal">
        <lane id=":n1_4_0" index="0" speed="40.00" length="10.32" shape="201.65,195.25 201.25,198.05 200.05,200.05 198.05,201.25 195.25,201.65"/>
    </edge>
    <edge id=":n1_5" function="internal">
        <lane id=":n1_5_0" index="0" speed="40.00" length="2.69" shape="201.65,195.25 200.83,196.49 200.00,196.90 199.75,196.77"/>
    </edge>
    <edge id=":n1_11" function="internal">
        <lane id=":n1_11_0" index="0" speed="40.00" length="2.13" shape="199.75,196.77 199.18,196.49 198.35,195.25"/>
    </edge>
    <edge id=":n1_6" function="internal">
        <lane id=":n1_6_0" index="0" speed="40.00" length="5.00" shape="195.25,198.35 196.61,198.16 197.58,197.57 198.16,196.61 198.35,195.25"/>
    </edge>
    <edge id=":n1_7" function="internal">
        <lane id=":n1_7_0" index="0" speed="40.00" length="9.50" shape="195.25,198.35 204.75,198.35"/>
    </edge>
    <edge id=":n1_8" function="internal">
        <lane id=":n1_8_0" index="0" speed="40.00" length="2.41" shape="195.25,198.35 196.49,199.17 196.90,200.00"/>
    </edge>
    <edge id=":n1_12" function="internal">
        <lane id=":n1_12_0" index="0" speed="40.00" length="2.41" shape="196.90,200.00 196.49,200.82 195.25,201.65"/>
    </edge>
    <edge id=":n2_0" function="internal">
        <lane id=":n2_0_0" index="0" speed="40.00" length="9.50" shape="404.75,201.65 395.25,201.65"/>
    </edge>
    <edge id=":n2_1" function="internal">
        <lane id=":n2_1_0" index="0" speed="40.00" length="5.28" shape="404.75,201.65 401.95,201.25 399.95,200.05 399.89,199.95"/>
    </edge>
    <edge id=":n2_2" function="internal">
        <lane id=":n2_2_0" index="0" speed="40.00" length="2.41" shape="404.75,201.65 403.51,200.83 403.10,200.00"/>
    </edge>
    <edge id=":n2_9" function="internal">
        <lane id=":n2_9_0" index="0" speed="40.00" length="5.04" shape="399.89,199.95 398.75,198.05 398.35,195.25"/>
    </edge>
    <edge id=":n2_10" function="internal">
        <lane id=":n2_10_0" index="0" speed="40.00" length="2.41" shape="403.10,200.00 403.51,199.18 404.75,198.35"/>
    </edge>
    <edge id=":n2_3" function="internal">
        <lane id=":n2_3_0" index="0" speed="40.00" length="5.00" shape="401.65,195.25 401.84,196.61 402.42,197.58 403.39,198.16 404.75,198.35"/>
    </edge>
    <edge id=":n2_4" function="internal">
        <lane id=":n2_4_0" index="0" speed="40.00" length="10.32" shape="401.65,195.25 401.25,198.05 400.05,200.05 398.05,201.25 395.25,201.65"/>
    </edge>
    <edge id=":n2_5" function="internal">
        <lane id=":n2_5_0" index="0" speed="40.00" length="2.69" shape="401.65,195.25 400.83,196.49 400.00,196.90 399.75,196.77"/>
    </edge>
    <edge id=":n2_11" function="internal">
        <lane id=":n2_11_0" index="0" speed="40.00" length="2.13" shape="399.75,196.77 399.18,196.49 398.35,195.25"/>
    </edge>
    <edge id=":n2_6" function="internal">
        <lane id=":n2_6_0" index="0" speed="40.00" length="5.00" shape="395.25,198.35 396.61,198.16 397.58,197.57 398.16,196.61 398.35,195.25"/>
    </edge>
    <edge id=":n2_7" function="internal">
        <lane id=":n2_7_0" index="0" speed="40.00" length="9.50" shape="395.25,198.35 404.75,198.35"/>
    </edge>
    <edge id=":n2_8" function="internal">
        <lane id=":n2_8_0" index="0" speed="40.00" length="2.41" shape="395.25,198.35 396.49,199.17 396.90,200.00"/>
    </edge>
    <edge id=":n2_12" function="internal">
        <lane id=":n2_12_0" index="0" speed="40.00" length="2.41" shape="396.90,200.00 396.49,200.82 395.25,201.65"/>
    </edge>
    <edge id=":n3_0" function="internal">
        <lane id=":n3_0_0" index="0" speed="40.00" length="14.65" shape="595.62,193.29 598.54,196.94 598.93,199.56 596.81,201.13 592.15,201.65"/>
    </edge>
    <edge id=":n3_1" function="internal">
        <lane id=":n3_1_0" index="0" speed="40.00" length="2.65" shape="595.62,193.29 595.91,194.74 595.62,195.62 595.39,195.69"/>
    </edge>
    <edge id=":n3_4" function="internal">
        <lane id=":n3_4_0" index="0" speed="40.00" length="2.17" shape="595.39,195.69 594.74,195.91 593.29,195.62"/>
    </edge>
    <edge id=":n3_2" function="internal">
        <lane id=":n3_2_0" index="0" speed="40.00" length="4.78" shape="592.15,198.35 593.67,198.18 594.37,197.67 594.24,196.81 593.29,195.62"/>
    </edge>
    <edge id=":n3_3" function="internal">
        <lane id=":n3_3_0" index="0" speed="40.00" length="2.26" shape="592.15,198.35 593.39,199.17 593.73,199.86"/>
    </edge>
    <edge id=":n3_5" function="internal">
        <lane id=":n3_5_0" index="0" speed="40.00" length="2.56" shape="593.73,199.86 593.80,200.00 593.39,200.82 592.15,201.65"/>
    </edge>
    <edge id=":n4_0" function="internal">
        <lane id=":n4_0_0" index="0" speed="40.00" length="6.64" shape="198.35,9.35 198.11,7.24 197.40,6.27 196.22,6.45 194.56,7.78"/>
    </edge>
    <edge id=":n4_1" function="internal">
        <lane id=":n4_1_0" index="0" speed="40.00" length="14.22" shape="198.35,9.35 198.75,4.54 199.95,1.10 201.95,-0.96 204.75,-1.65"/>
    </edge>
    <edge id=":n4_2" function="internal">
        <lane id=":n4_2_0" index="0" speed="40.00" length="2.56" shape="198.35,9.35 199.17,8.11 200.00,7.70 200.14,7.77"/>
    </edge>
    <edge id=":n4_9" function="internal">
        <lane id=":n4_9_0" index="0" speed="40.00" length="2.26" shape="200.14,7.77 200.82,8.11 201.65,9.35"/>
    </edge>
    <edge id=":n4_3" function="internal">
        <lane id=":n4_3_0" index="0" speed="40.00" length="9.02" shape="204.75,1.65 203.39,2.13 202.42,3.57 201.84,5.98 201.65,9.35"/>
    </edge>
    <edge id=":n4_4" function="internal">
        <lane id=":n4_4_0" index="0" speed="40.00" length="12.14" shape="204.75,1.65 202.59,2.03 200.17,3.18 197.49,5.10 194.56,7.78"/>
    </edge>
    <edge id=":n4_5" function="internal">
        <lane id=":n4_5_0" index="0" speed="40.00" length="2.17" shape="204.75,1.65 203.51,0.83 203.21,0.21"/>
    </edge>
    <edge id=":n4_10" function="internal">
        <lane id=":n4_10_0" index="0" speed="40.00" length="2.65" shape="203.21,0.21 203.10,0.00 203.51,-0.83 204.75,-1.65"/>
    </edge>
    <edge id=":n4_6" function="internal">
        <lane id=":n4_6_0" index="0" speed="40.00" length="14.72" shape="192.22,5.44 195.67,2.34 198.90,0.12 201.93,-1.21 204.75,-1.65"/>
    </edge>
    <edge id=":n4_7" function="internal">
        <lane id=":n4_7_0" index="0" speed="40.00" length="8.37" shape="192.22,5.44 196.35,2.15 199.29,1.71 199.36,1.79"/>
    </edge>
    <edge id=":n4_8" function="internal">
        <lane id=":n4_8_0" index="0" speed="40.00" length="2.54" shape="192.22,5.44 193.68,5.15 194.56,5.44 194.60,5.57"/>
    </edge>
    <edge id=":n4_11" function="internal">
        <lane id=":n4_11_0" index="0" speed="40.00" length="8.14" shape="199.36,1.79 201.06,4.10 201.65,9.35"/>
    </edge>
    <edge id=":n4_12" function="internal">
        <lane id=":n4_12_0" index="0" speed="40.00" length="2.28" shape="194.60,5.57 194.85,6.32 194.56,7.78"/>
    </edge>
    <edge id=":n5_0" function="internal">
        <lane id=":n5_0_0" index="0" speed="40.00" length="9.02" shape="398.35,9.35 398.16,5.98 397.58,3.57 396.61,2.13 395.25,1.65"/>
    </edge>
    <edge id=":n5_1" function="internal">
        <lane id=":n5_1_0" index="0" speed="40.00" length="16.51" shape="398.35,9.35 398.94,4.10 400.71,1.71 403.65,2.15 407.78,5.44"/>
    </edge>
    <edge id=":n5_2" function="internal">
        <lane id=":n5_2_0" index="0" speed="40.00" length="2.65" shape="398.35,9.35 399.17,8.11 400.00,7.70 400.21,7.80"/>
    </edge>
    <edge id=":n5_9" function="internal">
        <lane id=":n5_9_0" index="0" speed="40.00" length="2.17" shape="400.21,7.80 400.82,8.11 401.65,9.35"/>
    </edge>
    <edge id=":n5_3" function="internal">
        <lane id=":n5_3_0" index="0" speed="40.00" length="6.64" shape="405.44,7.78 403.78,6.45 402.60,6.27 401.89,7.24 401.65,9.35"/>
    </edge>
    <edge id=":n5_4" function="internal">
        <lane id=":n5_4_0" index="0" speed="40.00" length="12.14" shape="405.44,7.78 402.51,5.10 399.83,3.18 397.41,2.03 395.25,1.65"/>
    </edge>
    <edge id=":n5_5" function="internal">
        <lane id=":n5_5_0" index="0" speed="40.00" length="2.41" shape="405.44,7.78 405.15,6.32 405.44,5.44"/>
    </edge>
    <edge id=":n5_10" function="internal">
        <lane id=":n5_10_0" index="0" speed="40.00" length="2.41" shape="405.44,5.44 406.32,5.15 407.78,5.44"/>
    </edge>
    <edge id=":n5_6" function="internal">
        <lane id=":n5_6_0" index="0" speed="40.00" length="14.72" shape="395.25,-1.65 398.07,-1.21 401.10,0.12 404.33,2.34 407.78,5.44"/>
    </edge>
    <edge id=":n5_7" function="internal">
        <lane id=":n5_7_0" index="0" speed="40.00" length="6.28" shape="395.25,-1.65 398.05,-0.96 400.05,1.10 400.22,1.60"/>
    </edge>
    <edge id=":n5_8" function="internal">
        <lane id=":n5_8_0" index="0" speed="40.00" length="2.74" shape="395.25,-1.65 396.49,-0.83 396.90,0.00 396.75,0.29"/>
    </edge>
    <edge id=":n5_11" function="internal">
        <lane id=":n5_11_0" index="0" speed="40.00" length="7.94" shape="400.22,1.60 401.25,4.54 401.65,9.35"/>
    </edge>
    <edge id=":n5_12" function="internal">
        <lane id=":n5_12_0" index="0" speed="40.00" length="2.08" shape="396.75,0.29 396.49,0.83 395.25,1.65"/>
    </edge>

    <edge id="D04" from="n0" to="n4" priority="75">
        <lane id="D04_0" index="0" speed="40.00" length="265.65" shape="4.38,193.29 192.22,5.44"/>
    </edge>
    <edge id="D14" from="n1" to="n4" priority="75">
        <lane id="D14_0" index="0" speed="40.00" length="185.90" shape="198.35,195.25 198.35,9.35"/>
    </edge>
    <edge id="D25" from="n2" to="n5" priority="75">
        <lane id="D25_0" index="0" speed="40.00" length="185.90" shape="398.35,195.25 398.35,9.35"/>
    </edge>
    <edge id="D35" from="n3" to="n5" priority="75">
        <lane id="D35_0" index="0" speed="40.00" length="265.65" shape="593.29,195.62 405.44,7.78"/>
    </edge>
    <edge id="L01" from="n1" to="n0" priority="75">
        <lane id="L01_0" index="0" speed="40.00" length="187.40" shape="195.25,201.65 7.85,201.65"/>
    </edge>
    <edge id="L12" from="n2" to="n1" priority="75">
        <lane id="L12_0" index="0" speed="40.00" length="190.50" shape="395.25,201.65 204.75,201.65"/>
    </edge>
    <edge id="L23" from="n3" to="n2" priority="75">
        <lane id="L23_0" index="0" speed="40.00" length="187.40" shape="592.15,201.65 404.75,201.65"/>
    </edge>
    <edge id="L45" from="n5" to="n4" priority="75">
        <lane id="L45_0" index="0" speed="40.00" length="190.50" shape="395.25,1.65 204.75,1.65"/>
    </edge>
    <edge id="R01" from="n0" to="n1" priority="75">
        <lane id="R01_0" index="0" speed="40.00" length="187.40" shape="7.85,198.35 195.25,198.35"/>
    </edge>
    <edge id="R12" from="n1" to="n2" priority="75">
        <lane id="R12_0" index="0" speed="40.00" length="190.50" shape="204.75,198.35 395.25,198.35"/>
    </edge>
    <edge id="R23" from="n2" to="n3" priority="75">
        <lane id="R23_0" index="0" speed="40.00" length="187.40" shape="404.75,198.35 592.15,198.35"/>
    </edge>
    <edge id="R45" from="n4" to="n5" priority="75">
        <lane id="R45_0" index="0" speed="40.00" length="190.50" shape="204.75,-1.65 395.25,-1.65"/>
    </edge>
    <edge id="U04" from="n4" to="n0" priority="75">
        <lane id="U04_0" index="0" speed="40.00" length="265.65" shape="194.56,7.78 6.71,195.62"/>
    </edge>
    <edge id="U14" from="n4" to="n1" priority="75">
        <lane id="U14_0" index="0" speed="40.00" length="185.90" shape="201.65,9.35 201.65,195.25"/>
    </edge>
    <edge id="U25" from="n5" to="n2" priority="75">
        <lane id="U25_0" index="0" speed="40.00" length="185.90" shape="401.65,9.35 401.65,195.25"/>
    </edge>
    <edge id="U35" from="n5" to="n3" priority="75">
        <lane id="U35_0" index="0" speed="40.00" length="265.65" shape="407.78,5.44 595.62,193.29"/>
    </edge>

    <tlLogic id="n1" type="static" programID="0" offset="0">
        <phase duration="22" state="GggrrrGGg"/>
        <phase duration="13" state="yggrrryyg"/>
        <phase duration="6" state="rGGrrrrrG"/>
        <phase duration="13" state="ryyrrrrry"/>
        <phase duration="23" state="rrrGGgGrr"/>
        <phase duration="13" state="rrryyyyrr"/>
    </tlLogic>
    <tlLogic id="n2" type="static" programID="0" offset="0">
        <phase duration="22" state="GggrrrGGg"/>
        <phase duration="13" state="yggrrryyg"/>
        <phase duration="6" state="rGGrrrrrG"/>
        <phase duration="13" state="ryyrrrrry"/>
        <phase duration="23" state="rrrGGgGrr"/>
        <phase duration="13" state="rrryyyyrr"/>
    </tlLogic>
    <tlLogic id="n4" type="static" programID="0" offset="0">
        <phase duration="22" state="rrrGGgGgg"/>
        <phase duration="13" state="rrryygygg"/>
        <phase duration="6" state="rrrrrGrGG"/>
        <phase duration="13" state="rrrrryryy"/>
        <phase duration="23" state="GGgGrrrrr"/>
        <phase duration="13" state="yyyyrrrrr"/>
    </tlLogic>
    <tlLogic id="n5" type="static" programID="0" offset="0">
        <phase duration="22" state="rrrGGgGgg"/>
        <phase duration="13" state="rrryygygg"/>
        <phase duration="6" state="rrrrrGrGG"/>
        <phase duration="13" state="rrrrryryy"/>
        <phase duration="23" state="GGgGrrrrr"/>
        <phase duration="13" state="yyyyrrrrr"/>
    </tlLogic>

    <junction id="n0" type="priority" x="0.00" y="200.00" incLanes="L01_0 U04_0" intLanes=":n0_0_0 :n0_4_0 :n0_2_0 :n0_5_0" shape="7.85,203.25 7.85,196.75 3.25,192.15">
        <request index="0" response="0000" foes="1000" cont="0"/>
        <request index="1" response="0100" foes="0100" cont="1"/>
        <request index="2" response="0000" foes="0010" cont="0"/>
        <request index="3" response="0001" foes="0001" cont="1"/>
    </junction>
    <junction id="n1" type="traffic_light" x="200.00" y="200.00" incLanes="L12_0 U14_0 R01_0" intLanes=":n1_0_0 :n1_9_0 :n1_10_0 :n1_3_0 :n1_4_0 :n1_11_0 :n1_6_0 :n1_7_0 :n1_12_0" shape="204.75,203.25 204.75,196.75 203.25,195.25 196.75,195.25 195.25,196.75 195.25,203.25">
        <request index="0" response="000000000" foes="100010000" cont="0"/>
        <request index="1" response="011000000" foes="011110000" cont="1"/>
        <request index="2" response="010001000" foes="010001000" cont="1"/>
        <request index="3" response="010000000" foes="010000100" cont="0"/>
        <request index="4" response="010000011" foes="110000011" cont="0"/>
        <request index="5" response="001000010" foes="001000010" cont="1"/>
        <request index="6" response="000000000" foes="000100010" cont="0"/>
        <request index="7" response="000000000" foes="000011110" cont="0"/>
        <request index="8" response="000010001" foes="000010001" cont="1"/>
    </junction>
    <junction id="n2" type="traffic_light" x="400.00" y="200.00" incLanes="L23_0 U25_0 R12_0" intLanes=":n2_0_0 :n2_9_0 :n2_10_0 :n2_3_0 :n2_4_0 :n2_11_0 :n2_6_0 :n2_7_0 :n2_12_0" shape="404.75,203.25 404.75,196.75 403.25,195.25 396.75,195.25 395.25,196.75 395.25,203.25">
        <request index="0" response="000000000" foes="100010000" cont="0"/>
        <request index="1" response="011000000" foes="011110000" cont="1"/>
        <request index="2" response="010001000" foes="010001000" cont="1"/>
        <request index="3" response="010000000" foes="010000100" cont="0"/>
        <request index="4" response="010000011" foes="110000011" cont="0"/>
        <request index="5" response="001000010" foes="001000010" cont="1"/>
        <request index="6" response="000000000" foes="000100010" cont="0"/>
        <request index="7" response="000000000" foes="000011110" cont="0"/>
        <request index="8" response="000010001" foes="000010001" cont="1"/>
    </junction>
    <junction id="n3" type="priority" x="600.00" y="200.00" incLanes="U35_0 R23_0" intLanes=":n3_0_0 :n3_4_0 :n3_2_0 :n3_5_0" shape="596.75,192.15 592.15,196.75 592.15,203.25">
        <request index="0" response="0000" foes="1000" cont="0"/>
        <request index="1" response="0100" foes="0100" cont="1"/>
        <request index="2" response="0000" foes="0010" cont="0"/>
        <request index="3" response="0001" foes="0001" cont="1"/>
    </junction>
    <junction id="n4" type="traffic_light" x="200.00" y="0.00" incLanes="D14_0 L45_0 D04_0" intLanes=":n4_0_0 :n4_1_0 :n4_9_0 :n4_3_0 :n4_4_0 :n4_10_0 :n4_6_0 :n4_11_0 :n4_12_0" shape="196.75,9.35 203.25,9.35 204.75,3.25 204.75,-3.25 191.09,4.31 195.69,8.91">
        <request index="0" response="000010000" foes="100010000" cont="0"/>
        <request index="1" response="011010000" foes="011110000" cont="0"/>
        <request index="2" response="010001000" foes="010001000" cont="1"/>
        <request index="3" response="000000000" foes="010000100" cont="0"/>
        <request index="4" response="000000000" foes="110000011" cont="0"/>
        <request index="5" response="001000010" foes="001000010" cont="1"/>
        <request index="6" response="000000000" foes="000100010" cont="0"/>
        <request index="7" response="000011000" foes="000011110" cont="1"/>
        <request index="8" response="000010001" foes="000010001" cont="1"/>
    </junction>
    <junction id="n5" type="traffic_light" x="400.00" y="0.00" incLanes="D25_0 D35_0 R45_0" intLanes=":n5_0_0 :n5_1_0 :n5_9_0 :n5_3_0 :n5_4_0 :n5_10_0 :n5_6_0 :n5_11_0 :n5_12_0" shape="396.75,9.35 403.25,9.35 404.31,8.91 408.91,4.31 395.25,-3.25 395.25,3.25">
        <request index="0" response="000010000" foes="100010000" cont="0"/>
        <request index="1" response="011010000" foes="011110000" cont="0"/>
        <request index="2" response="010001000" foes="010001000" cont="1"/>
        <request index="3" response="000000000" foes="010000100" cont="0"/>
        <request index="4" response="000000000" foes="110000011" cont="0"/>
        <request index="5" response="001000010" foes="001000010" cont="1"/>
        <request index="6" response="000000000" foes="000100010" cont="0"/>
        <request index="7" response="000011000" foes="000011110" cont="1"/>
        <request index="8" response="000010001" foes="000010001" cont="1"/>
    </junction>

    <junction id=":n0_4_0" type="internal" x="6.30" y="199.79" incLanes=":n0_1_0 U04_0" intLanes=":n0_2_0"/>
    <junction id=":n0_5_0" type="internal" x="4.53" y="195.67" incLanes=":n0_3_0 L01_0" intLanes=":n0_0_0"/>
    <junction id=":n1_9_0" type="internal" x="199.89" y="199.95" incLanes=":n1_1_0 R01_0" intLanes=":n1_4_0 :n1_5_0 :n1_6_0 :n1_7_0"/>
    <junction id=":n1_10_0" type="internal" x="203.10" y="200.00" incLanes=":n1_2_0 R01_0 U14_0" intLanes=":n1_3_0 :n1_7_0"/>
    <junction id=":n1_11_0" type="internal" x="199.75" y="196.77" incLanes=":n1_5_0 L12_0 R01_0" intLanes=":n1_1_0 :n1_6_0"/>
    <junction id=":n1_12_0" type="internal" x="196.90" y="200.00" incLanes=":n1_8_0 L12_0 U14_0" intLanes=":n1_0_0 :n1_4_0"/>
    <junction id=":n2_9_0" type="internal" x="399.89" y="199.95" incLanes=":n2_1_0 R12_0" intLanes=":n2_4_0 :n2_5_0 :n2_6_0 :n2_7_0"/>
    <junction id=":n2_10_0" type="internal" x="403.10" y="200.00" incLanes=":n2_2_0 R12_0 U25_0" intLanes=":n2_3_0 :n2_7_0"/>
    <junction id=":n2_11_0" type="internal" x="399.75" y="196.77" incLanes=":n2_5_0 L23_0 R12_0" intLanes=":n2_1_0 :n2_6_0"/>
    <junction id=":n2_12_0" type="internal" x="396.90" y="200.00" incLanes=":n2_8_0 L23_0 U25_0" intLanes=":n2_0_0 :n2_4_0"/>
    <junction id=":n3_4_0" type="internal" x="595.39" y="195.69" incLanes=":n3_1_0 R23_0" intLanes=":n3_2_0"/>
    <junction id=":n3_5_0" type="internal" x="593.73" y="199.86" incLanes=":n3_3_0 U35_0" intLanes=":n3_0_0"/>
    <junction id=":n4_9_0" type="internal" x="200.14" y="7.77" incLanes=":n4_2_0 D04_0 L45_0" intLanes=":n4_3_0 :n4_7_0"/>
    <junction id=":n4_10_0" type="internal" x="203.21" y="0.21" incLanes=":n4_5_0 D04_0 D14_0" intLanes=":n4_1_0 :n4_6_0"/>
    <junction id=":n4_11_0" type="internal" x="199.36" y="1.79" incLanes=":n4_7_0 L45_0" intLanes=":n4_1_0 :n4_2_0 :n4_3_0 :n4_4_0"/>
    <junction id=":n4_12_0" type="internal" x="194.60" y="5.57" incLanes=":n4_8_0 D14_0 L45_0" intLanes=":n4_0_0 :n4_4_0"/>
    <junction id=":n5_9_0" type="internal" x="400.21" y="7.80" incLanes=":n5_2_0 D35_0 R45_0" intLanes=":n5_3_0 :n5_7_0"/>
    <junction id=":n5_10_0" type="internal" x="405.44" y="5.44" incLanes=":n5_5_0 D25_0 R45_0" intLanes=":n5_1_0 :n5_6_0"/>
    <junction id=":n5_11_0" type="internal" x="400.22" y="1.60" incLanes=":n5_7_0 D35_0" intLanes=":n5_1_0 :n5_2_0 :n5_3_0 :n5_4_0"/>
    <junction id=":n5_12_0" type="internal" x="396.75" y="0.29" incLanes=":n5_8_0 D25_0 D35_0" intLanes=":n5_0_0 :n5_4_0"/>

    <connection from="D04" to="R45" fromLane="0" toLane="0" via=":n4_6_0" tl="n4" linkIndex="6" dir="L" state="o"/>
    <connection from="D04" to="U14" fromLane="0" toLane="0" via=":n4_7_0" tl="n4" linkIndex="7" dir="l" state="o"/>
    <connection from="D04" to="U04" fromLane="0" toLane="0" via=":n4_8_0" tl="n4" linkIndex="8" dir="t" state="o"/>
    <connection from="D14" to="U04" fromLane="0" toLane="0" via=":n4_0_0" tl="n4" linkIndex="0" dir="r" state="o"/>
    <connection from="D14" to="R45" fromLane="0" toLane="0" via=":n4_1_0" tl="n4" linkIndex="1" dir="l" state="o"/>
    <connection from="D14" to="U14" fromLane="0" toLane="0" via=":n4_2_0" tl="n4" linkIndex="2" dir="t" state="o"/>
    <connection from="D25" to="L45" fromLane="0" toLane="0" via=":n5_0_0" tl="n5" linkIndex="0" dir="r" state="o"/>
    <connection from="D25" to="U35" fromLane="0" toLane="0" via=":n5_1_0" tl="n5" linkIndex="1" dir="l" state="o"/>
    <connection from="D25" to="U25" fromLane="0" toLane="0" via=":n5_2_0" tl="n5" linkIndex="2" dir="t" state="o"/>
    <connection from="D35" to="U25" fromLane="0" toLane="0" via=":n5_3_0" tl="n5" linkIndex="3" dir="r" state="o"/>
    <connection from="D35" to="L45" fromLane="0" toLane="0" via=":n5_4_0" tl="n5" linkIndex="4" dir="R" state="o"/>
    <connection from="D35" to="U35" fromLane="0" toLane="0" via=":n5_5_0" tl="n5" linkIndex="5" dir="t" state="o"/>
    <connection from="L01" to="D04" fromLane="0" toLane="0" via=":n0_0_0" dir="l" state="M"/>
    <connection from="L01" to="R01" fromLane="0" toLane="0" via=":n0_1_0" dir="t" state="m"/>
    <connection from="L12" to="L01" fromLane="0" toLane="0" via=":n1_0_0" tl="n1" linkIndex="0" dir="s" state="o"/>
    <connection from="L12" to="D14" fromLane="0" toLane="0" via=":n1_1_0" tl="n1" linkIndex="1" dir="l" state="o"/>
    <connection from="L12" to="R12" fromLane="0" toLane="0" via=":n1_2_0" tl="n1" linkIndex="2" dir="t" state="o"/>
    <connection from="L23" to="L12" fromLane="0" toLane="0" via=":n2_0_0" tl="n2" linkIndex="0" dir="s" state="o"/>
    <connection from="L23" to="D25" fromLane="0" toLane="0" via=":n2_1_0" tl="n2" linkIndex="1" dir="l" state="o"/>
    <connection from="L23" to="R23" fromLane="0" toLane="0" via=":n2_2_0" tl="n2" linkIndex="2" dir="t" state="o"/>
    <connection from="L45" to="U14" fromLane="0" toLane="0" via=":n4_3_0" tl="n4" linkIndex="3" dir="r" state="o"/>
    <connection from="L45" to="U04" fromLane="0" toLane="0" via=":n4_4_0" tl="n4" linkIndex="4" dir="R" state="o"/>
    <connection from="L45" to="R45" fromLane="0" toLane="0" via=":n4_5_0" tl="n4" linkIndex="5" dir="t" state="o"/>
    <connection from="R01" to="D14" fromLane="0" toLane="0" via=":n1_6_0" tl="n1" linkIndex="6" dir="r" state="o"/>
    <connection from="R01" to="R12" fromLane="0" toLane="0" via=":n1_7_0" tl="n1" linkIndex="7" dir="s" state="o"/>
    <connection from="R01" to="L01" fromLane="0" toLane="0" via=":n1_8_0" tl="n1" linkIndex="8" dir="t" state="o"/>
    <connection from="R12" to="D25" fromLane="0" toLane="0" via=":n2_6_0" tl="n2" linkIndex="6" dir="r" state="o"/>
    <connection from="R12" to="R23" fromLane="0" toLane="0" via=":n2_7_0" tl="n2" linkIndex="7" dir="s" state="o"/>
    <connection from="R12" to="L12" fromLane="0" toLane="0" via=":n2_8_0" tl="n2" linkIndex="8" dir="t" state="o"/>
    <connection from="R23" to="D35" fromLane="0" toLane="0" via=":n3_2_0" dir="r" state="M"/>
    <connection from="R23" to="L23" fromLane="0" toLane="0" via=":n3_3_0" dir="t" state="m"/>
    <connection from="R45" to="U35" fromLane="0" toLane="0" via=":n5_6_0" tl="n5" linkIndex="6" dir="L" state="o"/>
    <connection from="R45" to="U25" fromLane="0" toLane="0" via=":n5_7_0" tl="n5" linkIndex="7" dir="l" state="o"/>
    <connection from="R45" to="L45" fromLane="0" toLane="0" via=":n5_8_0" tl="n5" linkIndex="8" dir="t" state="o"/>
    <connection from="U04" to="R01" fromLane="0" toLane="0" via=":n0_2_0" dir="r" state="M"/>
    <connection from="U04" to="D04" fromLane="0" toLane="0" via=":n0_3_0" dir="t" state="m"/>
    <connection from="U14" to="R12" fromLane="0" toLane="0" via=":n1_3_0" tl="n1" linkIndex="3" dir="r" state="o"/>
    <connection from="U14" to="L01" fromLane="0" toLane="0" via=":n1_4_0" tl="n1" linkIndex="4" dir="l" state="o"/>
    <connection from="U14" to="D14" fromLane="0" toLane="0" via=":n1_5_0" tl="n1" linkIndex="5" dir="t" state="o"/>
    <connection from="U25" to="R23" fromLane="0" toLane="0" via=":n2_3_0" tl="n2" linkIndex="3" dir="r" state="o"/>
    <connection from="U25" to="L12" fromLane="0" toLane="0" via=":n2_4_0" tl="n2" linkIndex="4" dir="l" state="o"/>
    <connection from="U25" to="D25" fromLane="0" toLane="0" via=":n2_5_0" tl="n2" linkIndex="5" dir="t" state="o"/>
    <connection from="U35" to="L23" fromLane="0" toLane="0" via=":n3_0_0" dir="l" state="M"/>
    <connection from="U35" to="D35" fromLane="0" toLane="0" via=":n3_1_0" dir="t" state="m"/>

    <connection from=":n0_0" to="D04" fromLane="0" toLane="0" dir="s" state="M"/>
    <connection from=":n0_1" to="R01" fromLane="0" toLane="0" via=":n0_4_0" dir="s" state="m"/>
    <connection from=":n0_4" to="R01" fromLane="0" toLane="0" dir="s" state="M"/>
    <connection from=":n0_2" to="R01" fromLane="0" toLane="0" dir="s" state="M"/>
    <connection from=":n0_3" to="D04" fromLane="0" toLane="0" via=":n0_5_0" dir="s" state="m"/>
    <connection from=":n0_5" to="D04" fromLane="0" toLane="0" dir="s" state="M"/>
    <connection from=":n1_0" to="L01" fromLane="0" toLane="0" dir="s" state="M"/>
    <connection from=":n1_1" to="D14" fromLane="0" toLane="0" via=":n1_9_0" dir="s" state="m"/>
    <connection from=":n1_9" to="D14" fromLane="0" toLane="0" dir="s" state="M"/>
    <connection from=":n1_2" to="R12" fromLane="0" toLane="0" via=":n1_10_0" dir="s" state="m"/>
    <connection from=":n1_10" to="R12" fromLane="0" toLane="0" dir="s" state="M"/>
    <connection from=":n1_3" to="R12" fromLane="0" toLane="0" dir="s" state="M"/>
    <connection from=":n1_4" to="L01" fromLane="0" toLane="0" dir="s" state="M"/>
    <connection from=":n1_5" to="D14" fromLane="0" toLane="0" via=":n1_11_0" dir="s" state="m"/>
    <connection from=":n1_11" to="D14" fromLane="0" toLane="0" dir="s" state="M"/>