<routes>

  <!-- e -->
  <vehicle id="v0" depart="0.00">
    <route edges="D04 R45 U35 L23 L12 L01"/>
  </vehicle>

  <vehicle id="v1" depart="0.00">
    <route edges="R12 R23 D35 L45 U14 L01"/>
  </vehicle>
  
  <vehicle id="v2" depart="0.00">
    <route edges="R01 R12 R23 D35 L45 U04"/>
  </vehicle>

  <vehicle id="v3" depart="0.00">
    <route edges="R01 D14 R45 U35 L23 L12"/>
  </vehicle>

  <vehicle id="v4" depart="0.00">
    <route edges="D35 L45 U14 R12 D25 U35 L23"/>
  </vehicle>

  <vehicle id="v5" depart="0.00">
    <route edges="R45 U25 L12 L01 D04 R45"/>
  </vehicle>

  
  
</routes>